LTspice 24.0.12 for Windows
Circuit: * Z:\home\julien\Documents\GitHub\ROBOT\facicule julien\simu\Passe_Haut\passe haut.asc
Start Time: Mon May  5 14:09:58 2025
solver = Normal
Maximum thread count: 4
tnom = 27
temp = 27
method = modified trap
Direct Newton iteration for .op point succeeded.
Total elapsed time: 0.482 seconds.

