LTspice 24.1.5 for Windows
Circuit: C:\Users\julie\OneDrive\Documents\GitHub\ROBOT\facicule julien\simu\Passe_Haut\passe haut.net
Start Time: Sun May  4 18:17:31 2025
solver = Normal
Maximum thread count: 12
tnom = 27
temp = 27
method = trap
Direct Newton iteration for .op point succeeded.
Total elapsed time: 0.022 seconds.

Files loaded:
C:\Users\julie\OneDrive\Documents\GitHub\ROBOT\facicule julien\simu\Passe_Haut\passe haut.net

