LTspice 24.1.5 for Windows
Circuit: C:\Users\julie\OneDrive\Documents\GitHub\ROBOT\facicule julien\simu\detecteur de crète\detecteur de crète.net
Start Time: Sun May 11 17:09:40 2025
solver = Normal
Maximum thread count: 12
tnom = 27
temp = 27
method = trap
C:\Users\julie\OneDrive\Documents\GitHub\ROBOT\facicule julien\simu\detecteur de crète\detecteur de crète.net(5): Limiting rise time to 2.5e-05.

V1 N001 0 PULSE(0 6 0 0 0 250u 500u)
^^^^^^^^^^^^^^^^^^^^^^^^^^^^^^^^^^^^
C:\Users\julie\OneDrive\Documents\GitHub\ROBOT\facicule julien\simu\detecteur de crète\detecteur de crète.net(5): Limiting fall time to 2.5e-05.

V1 N001 0 PULSE(0 6 0 0 0 250u 500u)
^^^^^^^^^^^^^^^^^^^^^^^^^^^^^^^^^^^^
.OP point found by inspection.
Total elapsed time: 0.084 seconds.

Files loaded:
C:\Users\julie\OneDrive\Documents\GitHub\ROBOT\facicule julien\simu\detecteur de crète\detecteur de crète.net
C:\Users\julie\AppData\Local\LTspice\lib\cmp\standard.dio

