LTspice 24.1.5 for Windows
Circuit: C:\Users\julie\OneDrive\Documents\GitHub\ROBOT\facicule julien\simu\Draft1.net
Start Time: Tue May  6 18:46:53 2025
solver = Normal
Maximum thread count: 12
tnom = 27
temp = 27
method = trap
Direct Newton iteration for .op point succeeded.
Total elapsed time: 0.024 seconds.

Files loaded:
C:\Users\julie\OneDrive\Documents\GitHub\ROBOT\facicule julien\simu\Draft1.net
C:\Users\julie\AppData\Local\LTspice\lib\sub\UniversalOpAmp1.lib

